Version 4
SHEET 1 2472 692
WIRE 2048 -576 2048 -672
WIRE 1360 -496 1344 -496
WIRE 1504 -496 1360 -496
WIRE 1600 -496 1504 -496
WIRE 1760 -496 1696 -496
WIRE 1808 -496 1760 -496
WIRE 2000 -496 1808 -496
WIRE 1808 -448 1808 -496
WIRE 1504 -432 1504 -496
WIRE 1504 -336 1504 -352
WIRE 1616 -336 1616 -448
WIRE 1616 -336 1504 -336
WIRE 1808 -336 1808 -368
WIRE 2048 -336 2048 -480
WIRE 1616 -272 1616 -336
WIRE -336 -256 -480 -256
WIRE -304 -256 -336 -256
WIRE -480 -208 -480 -256
WIRE 1616 -160 1616 -192
WIRE 1952 -160 1616 -160
WIRE -480 -112 -480 -128
WIRE 1616 -64 1616 -160
WIRE 1952 -64 1952 -160
WIRE -336 16 -480 16
WIRE -304 16 -336 16
WIRE 816 16 560 16
WIRE 1328 16 1328 -48
WIRE 1328 16 816 16
WIRE 1568 16 1328 16
WIRE 1904 16 1728 16
WIRE 1728 48 1728 16
WIRE -480 64 -480 16
WIRE -160 64 -160 16
WIRE 352 96 352 -48
WIRE 512 96 352 96
WIRE 560 128 560 112
WIRE 192 144 192 128
WIRE -480 160 -480 144
WIRE 160 160 96 160
WIRE 304 176 224 176
WIRE -160 192 -160 144
WIRE 160 192 -160 192
WIRE 816 192 560 192
WIRE 896 192 896 -48
WIRE 896 192 816 192
WIRE 928 192 896 192
WIRE 1152 192 1008 192
WIRE 1616 192 1616 32
WIRE 1728 192 1728 128
WIRE 1952 192 1952 32
WIRE -160 208 -160 192
WIRE 352 208 352 192
WIRE 192 224 192 208
WIRE 448 272 448 -48
WIRE 448 272 352 272
WIRE 512 272 448 272
WIRE 560 304 560 288
WIRE 192 320 192 304
WIRE -160 336 -160 288
WIRE 160 336 -160 336
WIRE -160 352 -160 336
WIRE 304 352 224 352
WIRE 1328 352 1328 320
WIRE 96 368 96 160
WIRE 160 368 96 368
WIRE 352 384 352 368
WIRE 192 400 192 384
WIRE 96 448 96 368
WIRE 1328 480 1328 432
WIRE 1392 480 1328 480
WIRE 1488 480 1392 480
WIRE 1328 512 1328 480
WIRE -160 592 -160 432
WIRE 96 592 96 528
WIRE 1152 592 1152 192
WIRE 1280 592 1152 592
WIRE 1328 624 1328 608
FLAG -160 592 0
FLAG -480 160 0
FLAG 96 592 0
FLAG 192 400 0
FLAG 192 224 0
FLAG 192 304 VIN_C
FLAG 192 128 VIN_C
FLAG -160 16 VIN_C
FLAG 352 384 0
FLAG 448 -128 VIN_C
FLAG 352 208 0
FLAG 352 -128 VIN_C
FLAG 560 304 0
FLAG 896 -128 VIN_C
FLAG 560 128 0
FLAG 816 192 OUTB
FLAG 1328 624 0
FLAG 1328 320 VCC
FLAG 816 16 OUTA
FLAG 1392 480 BUZ_LS
FLAG 1728 192 0
FLAG 1952 192 0
FLAG 1616 192 0
FLAG 1360 -496 VIN
FLAG -336 16 VIN
FLAG 1760 -496 VIN_C
FLAG 1328 -128 VIN_C
FLAG 1808 -336 0
FLAG 2048 -336 0
FLAG 2048 -752 VIN
FLAG -480 -112 0
FLAG -336 -256 5V
SYMBOL res -176 48 R0
SYMATTR InstName R1
SYMATTR Value 267k
SYMBOL res -176 192 R0
SYMATTR InstName R2
SYMATTR Value 348
SYMBOL res -176 336 R0
SYMATTR InstName R3
SYMATTR Value 10k
SYMBOL voltage 96 432 R0
WINDOW 123 0 0 Left 0
WINDOW 39 0 0 Left 0
SYMATTR InstName V1
SYMATTR Value 0.4
SYMBOL Comparators\\LT1716 192 352 R0
SYMATTR InstName U1
SYMBOL Comparators\\LT1716 192 176 R0
SYMATTR InstName U2
SYMBOL voltage -480 48 R0
WINDOW 3 24 96 Invisible 2
WINDOW 123 0 0 Left 0
WINDOW 39 0 0 Left 0
SYMATTR Value PWL(0 0 0.01 12 3 12 4 10 5 12 6 12 7 10 10 10)
SYMATTR InstName V2
SYMBOL nmos 304 272 R0
SYMATTR InstName M1
SYMATTR Value Si2316DS
SYMBOL res 432 -144 R0
SYMATTR InstName R4
SYMATTR Value 10k
SYMBOL nmos 304 96 R0
SYMATTR InstName M2
SYMATTR Value Si2316DS
SYMBOL res 336 -144 R0
SYMATTR InstName R5
SYMATTR Value 10k
SYMBOL nmos 512 192 R0
WINDOW 3 61 72 Left 2
SYMATTR Value Si2316DS
SYMATTR InstName M3
SYMBOL res 880 -144 R0
SYMATTR InstName R6
SYMATTR Value 100k
SYMBOL nmos 512 16 R0
SYMATTR InstName M4
SYMATTR Value Si2316DS
SYMBOL nmos 1280 512 R0
WINDOW 3 61 72 Left 2
SYMATTR Value Si2316DS
SYMATTR InstName M5
SYMBOL res 1312 336 R0
SYMATTR InstName R8
SYMATTR Value 10k
SYMBOL res 1024 176 R90
WINDOW 0 0 56 VBottom 2
WINDOW 3 32 56 VTop 2
SYMATTR InstName R14
SYMATTR Value 10k
SYMBOL pmos 1696 -448 M270
SYMATTR InstName M6
SYMATTR Value SI3443DV
SYMBOL nmos 1568 -64 R0
WINDOW 3 -78 -21 Left 2
WINDOW 0 -3 -54 Left 2
SYMATTR Value Si2316DS
SYMATTR InstName M7
SYMBOL nmos 1904 -64 R0
WINDOW 3 -78 -21 Left 2
WINDOW 0 -3 -54 Left 2
SYMATTR Value Si2316DS
SYMATTR InstName M8
SYMBOL voltage 1728 32 R0
WINDOW 3 24 96 Invisible 2
WINDOW 123 0 0 Left 0
WINDOW 39 0 0 Left 0
SYMATTR Value PULSE(0 12 1 0.01 0.01 0.1 4)
SYMATTR InstName V3
SYMBOL res 1600 -288 R0
SYMATTR InstName R7
SYMATTR Value 10k
SYMBOL res 1488 -448 R0
SYMATTR InstName R9
SYMATTR Value 10k
SYMBOL res 1312 -144 R0
SYMATTR InstName R10
SYMATTR Value 100k
SYMBOL res 1792 -464 R0
SYMATTR InstName R11
SYMATTR Value 10k
SYMBOL nmos 2000 -576 R0
WINDOW 3 -78 -21 Left 2
WINDOW 0 -3 -54 Left 2
SYMATTR Value Si2316DS
SYMATTR InstName M9
SYMBOL res 2032 -768 R0
SYMATTR InstName R12
SYMATTR Value 10k
SYMBOL voltage -480 -224 R0
WINDOW 3 24 96 Invisible 2
WINDOW 123 0 0 Left 0
WINDOW 39 0 0 Left 0
SYMATTR Value 5
SYMATTR InstName V4
TEXT -352 568 Left 2 !.tran 10
TEXT 40 -192 Left 2 ;TPS3700
RECTANGLE Normal 0 -240 768 688 1
